ATOM     11  N   UNL     1      -0.557   0.000   1.120  0.00  0.00    -0.232 N 
ATOM     12  N   UNL     1      -1.599   0.024   2.056  0.00  0.00    -0.162 NA
ATOM     13  C   UNL     1      -1.079   0.015   3.258  0.00  0.00    +0.166 A 
ATOM     18  C   UNL     1       0.310  -0.018   3.142  0.00  0.00    +0.062 A 
ATOM     19  C   UNL     1       0.619  -0.031   1.811  0.00  0.00    +0.075 A 
ENDROOT
ATOM     20  C   UNL     1       1.978  -0.065   1.227  0.00  0.00    +0.000 A 
ATOM     21  C   UNL     1       3.062   0.442   1.943  0.00  0.00    +0.010 A 
ATOM     22  C   UNL     1       4.327   0.403   1.394  0.00  0.00    +0.004 A 
ATOM     23  C   UNL     1       4.521  -0.130   0.133  0.00  0.00    -0.050 A 
ATOM     24  C   UNL     1       5.905  -0.165  -0.462  0.00  0.00    +0.044 C 
ATOM     25  C   UNL     1       3.450  -0.636  -0.582  0.00  0.00    +0.004 A 
ATOM     26  C   UNL     1       2.181  -0.607  -0.042  0.00  0.00    +0.010 A 
ATOM      7  C   UNL     1      -0.977   0.000  -3.026  0.00  0.00    +0.105 A 
ATOM      8  C   UNL     1      -0.043   0.825  -2.427  0.00  0.00    +0.030 A 
ATOM      9  C   UNL     1       0.093   0.832  -1.052  0.00  0.00    +0.030 A 
ATOM     10  C   UNL     1      -0.698   0.000  -0.273  0.00  0.00    +0.066 A 
ATOM     27  C   UNL     1      -1.635  -0.827  -0.878  0.00  0.00    +0.030 A 
ATOM     28  C   UNL     1      -1.772  -0.824  -2.252  0.00  0.00    +0.030 A 
ATOM      1  S   UNL     1      -1.154   0.001  -4.779  0.00  0.00    +0.056 S 
ATOM      2  O   UNL     1      -1.743  -1.249  -5.107  0.00  0.00    -0.153 OA
ATOM      3  O   UNL     1       0.077   0.489  -5.291  0.00  0.00    -0.153 OA
ATOM      4  N   UNL     1      -2.287   1.146  -5.162  0.00  0.00    -0.204 NA
ATOM      5  H   UNL     1      -2.710   1.664  -4.459  0.00  0.00    +0.144 HD
ATOM      6  H   UNL     1      -2.527   1.300  -6.089  0.00  0.00    +0.144 HD
ATOM     14  C   UNL     1      -1.853   0.039   4.551  0.00  0.00    +0.436 C 
ATOM     15  F   UNL     1      -1.499   1.175   5.286  0.00  0.00    -0.164 F 
ATOM     16  F   UNL     1      -1.555  -1.108   5.293  0.00  0.00    -0.164 F 
ATOM     17  F   UNL     1      -3.224   0.071   4.273  0.00  0.00    -0.164 F 
TORSDOF 5