CEL
  -OEChem-07122417453D

 40 42  0     0  0  0  0  0  0999 V2000
   -1.1540    0.0010   -4.7790 S   0  0  0  0  0  0  0  0  0  0  0  0
   -0.9770    0.0000   -3.0260 C   0  0  0  0  0  0  0  0  0  0  0  0
   -1.7720   -0.8240   -2.2520 C   0  0  0  0  0  0  0  0  0  0  0  0
   -1.6350   -0.8270   -0.8780 C   0  0  0  0  0  0  0  0  0  0  0  0
   -0.6980    0.0000   -0.2730 C   0  0  0  0  0  0  0  0  0  0  0  0
    0.0930    0.8320   -1.0520 C   0  0  0  0  0  0  0  0  0  0  0  0
   -0.0430    0.8250   -2.4270 C   0  0  0  0  0  0  0  0  0  0  0  0
   -0.5570    0.0000    1.1200 N   0  0  0  0  0  0  0  0  0  0  0  0
    0.6190   -0.0310    1.8110 C   0  0  0  0  0  0  0  0  0  0  0  0
    1.9780   -0.0650    1.2270 C   0  0  0  0  0  0  0  0  0  0  0  0
    2.1810   -0.6070   -0.0420 C   0  0  0  0  0  0  0  0  0  0  0  0
    3.4500   -0.6360   -0.5820 C   0  0  0  0  0  0  0  0  0  0  0  0
    4.5210   -0.1300    0.1330 C   0  0  0  0  0  0  0  0  0  0  0  0
    5.9050   -0.1650   -0.4620 C   0  0  0  0  0  0  0  0  0  0  0  0
    4.3270    0.4030    1.3940 C   0  0  0  0  0  0  0  0  0  0  0  0
    3.0620    0.4420    1.9430 C   0  0  0  0  0  0  0  0  0  0  0  0
    0.3100   -0.0180    3.1420 C   0  0  0  0  0  0  0  0  0  0  0  0
   -1.0790    0.0150    3.2580 C   0  0  0  0  0  0  0  0  0  0  0  0
   -1.8530    0.0390    4.5510 C   0  0  0  0  0  0  0  0  0  0  0  0
   -3.2240    0.0710    4.2730 F   0  0  0  0  0  0  0  0  0  0  0  0
   -1.5550   -1.1080    5.2930 F   0  0  0  0  0  0  0  0  0  0  0  0
   -1.4990    1.1750    5.2860 F   0  0  0  0  0  0  0  0  0  0  0  0
   -1.5990    0.0240    2.0560 N   0  0  0  0  0  0  0  0  0  0  0  0
   -2.2870    1.1460   -5.1620 N   0  0  0  0  0  0  0  0  0  0  0  0
    0.0770    0.4890   -5.2910 O   0  0  0  0  0  0  0  0  0  0  0  0
   -1.7430   -1.2490   -5.1070 O   0  0  0  0  0  0  0  0  0  0  0  0
   -2.5000   -1.4680   -2.7230 H   0  0  0  0  0  0  0  0  0  0  0  0
   -2.2560   -1.4720   -0.2740 H   0  0  0  0  0  0  0  0  0  0  0  0
    0.8230    1.4770   -0.5850 H   0  0  0  0  0  0  0  0  0  0  0  0
    0.5760    1.4690   -3.0340 H   0  0  0  0  0  0  0  0  0  0  0  0
    1.3460   -1.0020   -0.6020 H   0  0  0  0  0  0  0  0  0  0  0  0
    3.6090   -1.0540   -1.5650 H   0  0  0  0  0  0  0  0  0  0  0  0
    6.0820    0.7510   -1.0250 H   0  0  0  0  0  0  0  0  0  0  0  0
    6.6420   -0.2490    0.3360 H   0  0  0  0  0  0  0  0  0  0  0  0
    5.9920   -1.0230   -1.1280 H   0  0  0  0  0  0  0  0  0  0  0  0
    5.1670    0.7960    1.9480 H   0  0  0  0  0  0  0  0  0  0  0  0
    2.9110    0.8630    2.9260 H   0  0  0  0  0  0  0  0  0  0  0  0
    1.0160   -0.0330    3.9590 H   0  0  0  0  0  0  0  0  0  0  0  0
   -2.5270    1.3000   -6.0890 H   0  0  0  0  0  0  0  0  0  0  0  0
   -2.7100    1.6640   -4.4590 H   0  0  0  0  0  0  0  0  0  0  0  0
  1  2  1  0  0  0  0
  1 24  1  0  0  0  0
  1 25  2  0  0  0  0
  1 26  2  0  0  0  0
  2  3  2  0  0  0  0
  2  7  1  0  0  0  0
  3  4  1  0  0  0  0
  3 27  1  0  0  0  0
  4  5  2  0  0  0  0
  4 28  1  0  0  0  0
  5  6  1  0  0  0  0
  5  8  1  0  0  0  0
  6  7  2  0  0  0  0
  6 29  1  0  0  0  0
  7 30  1  0  0  0  0
  8  9  1  0  0  0  0
  8 23  1  0  0  0  0
  9 10  1  0  0  0  0
  9 17  2  0  0  0  0
 10 11  2  0  0  0  0
 10 16  1  0  0  0  0
 11 12  1  0  0  0  0
 11 31  1  0  0  0  0
 12 13  2  0  0  0  0
 12 32  1  0  0  0  0
 13 14  1  0  0  0  0
 13 15  1  0  0  0  0
 14 33  1  0  0  0  0
 14 34  1  0  0  0  0
 14 35  1  0  0  0  0
 15 16  2  0  0  0  0
 15 36  1  0  0  0  0
 16 37  1  0  0  0  0
 17 18  1  0  0  0  0
 17 38  1  0  0  0  0
 18 19  1  0  0  0  0
 18 23  2  0  0  0  0
 19 20  1  0  0  0  0
 19 21  1  0  0  0  0
 19 22  1  0  0  0  0
 24 39  1  0  0  0  0
 24 40  1  0  0  0  0
M  END
> <OPENEYE_ISO_SMILES>
Cc1ccc(cc1)c2cc(nn2c3ccc(cc3)S(=O)(=O)N)C(F)(F)F

> <OPENEYE_INCHI>
InChI=1S/C17H14F3N3O2S/c1-11-2-4-12(5-3-11)15-10-16(17(18,19)20)22-23(15)13-6-8-14(9-7-13)26(21,24)25/h2-10H,1H3,(H2,21,24,25)

> <OPENEYE_INCHIKEY>
RZEKVGVHFLEQIL-UHFFFAOYSA-N

> <FORMULA>
C17H14F3N3O2S

$$$$
