REMARK  Name = C:\\Users\\klair\\Desktop\\pp\\ligand_3d_UCJKEZB.pdb
REMARK  27 active torsions:
REMARK  status: ('A' for Active; 'I' for Inactive)
REMARK    1  A    between atoms: _4  and  _8
REMARK    2  A    between atoms: _6  and  _7
REMARK    3  A    between atoms: _8  and  _9
REMARK    4  A    between atoms: _9  and  _11
REMARK    5  A    between atoms: _11  and  _12
REMARK    6  A    between atoms: _12  and  _13
REMARK    7  A    between atoms: _13  and  _14
REMARK    8  A    between atoms: _14  and  _15
REMARK    9  A    between atoms: _15  and  _16
REMARK   10  A    between atoms: _16  and  _17
REMARK   11  A    between atoms: _17  and  _18
REMARK   12  A    between atoms: _17  and  _29
REMARK   13  A    between atoms: _21  and  _28
REMARK   14  A    between atoms: _22  and  _24
REMARK   15  A    between atoms: _24  and  _25
REMARK   16  A    between atoms: _25  and  _27
REMARK   17  A    between atoms: _29  and  _30
REMARK   18  A    between atoms: _30  and  _31
REMARK   19  A    between atoms: _31  and  _33
REMARK   20  A    between atoms: _33  and  _34
REMARK   21  A    between atoms: _34  and  _35
REMARK   22  A    between atoms: _35  and  _36
REMARK   23  A    between atoms: _35  and  _47
REMARK   24  A    between atoms: _39  and  _43
REMARK   25  A    between atoms: _40  and  _42
REMARK   26  A    between atoms: _43  and  _44
REMARK   27  A    between atoms: _44  and  _46
REMARK                            x       y       z     vdW  Elec       q    Type
REMARK                         _______ _______ _______ _____ _____    ______ ____
ROOT
ATOM      1  C   UNL     1       0.591  -1.262   1.372  0.00  0.00    +0.084 C 
ENDROOT
BRANCH   1   2
ATOM      2  C   UNL     1       0.533  -2.738   1.294  0.00  0.00    -0.030 A 
ATOM      3  C   UNL     1      -0.072  -3.375   0.234  0.00  0.00    +0.011 A 
ATOM      4  C   UNL     1      -0.153  -4.745   0.161  0.00  0.00    -0.016 A 
ATOM      5  C   UNL     1       0.395  -5.483   1.189  0.00  0.00    +0.028 A 
ATOM      6  C   UNL     1       1.007  -4.870   2.258  0.00  0.00    +0.023 A 
ATOM      7  C   UNL     1       1.074  -3.514   2.310  0.00  0.00    +0.007 A 
BRANCH   5   8
ATOM      8  N   UNL     1       0.309  -6.887   1.125  0.00  0.00    -0.358 N 
ATOM      9  H   UNL     1       0.109  -7.377   0.228  0.00  0.00    +0.142 HD
ATOM     10  H   UNL     1       0.456  -7.426   2.028  0.00  0.00    +0.142 HD
ENDBRANCH   5   8
BRANCH   4  11
ATOM     11  C   UNL     1      -0.823  -5.367  -1.005  0.00  0.00    +0.157 C 
BRANCH  11  12
ATOM     12  C   UNL     1       0.214  -5.921  -1.900  0.00  0.00    +0.309 C 
ATOM     13  O   UNL     1       1.410  -5.816  -1.615  0.00  0.00    -0.251 OA
BRANCH  12  14
ATOM     14  O   UNL     1      -0.229  -6.562  -3.074  0.00  0.00    -0.480 OA
ATOM     15  H   UNL     1       0.453  -6.622  -3.826  0.00  0.00    +0.295 HD
ENDBRANCH  12  14
ENDBRANCH  11  12
ENDBRANCH   4  11
ENDBRANCH   1   2
BRANCH   1  16
ATOM     16  N   UNL     1      -0.777  -0.801   1.094  0.00  0.00    -0.300 NA
ATOM     17  H   UNL     1      -0.816   0.256   1.139  0.00  0.00    +0.123 HD
BRANCH  16  18
ATOM     18  C   UNL     1      -1.675  -1.256   2.138  0.00  0.00    +0.203 C 
BRANCH  18  19
ATOM     19  C   UNL     1      -3.062  -0.814   1.741  0.00  0.00    +0.321 C 
ATOM     20  O   UNL     1      -4.035  -1.061   2.498  0.00  0.00    -0.249 OA
BRANCH  19  21
ATOM     21  O   UNL     1      -3.314  -0.152   0.581  0.00  0.00    -0.462 OA
BRANCH  21  22
ATOM     22  C   UNL     1      -4.487   0.339   0.038  0.00  0.00    +0.255 C 
BRANCH  22  23
ATOM     23  C   UNL     1      -5.085   1.433   0.836  0.00  0.00    +0.119 C 
BRANCH  23  24
ATOM     24  C   UNL     1      -6.336   1.978   0.227  0.00  0.00    -0.026 A 
ATOM     25  C   UNL     1      -6.727   1.707  -1.067  0.00  0.00    +0.028 A 
ATOM     26  C   UNL     1      -7.889   2.242  -1.580  0.00  0.00    +0.029 A 
ATOM     27  C   UNL     1      -8.718   3.065  -0.847  0.00  0.00    -0.016 A 
ATOM     28  C   UNL     1      -8.336   3.343   0.451  0.00  0.00    +0.006 A 
ATOM     29  C   UNL     1      -7.155   2.800   0.972  0.00  0.00    +0.005 A 
BRANCH  26  30
ATOM     30  N   UNL     1      -8.296   1.965  -2.926  0.00  0.00    -0.358 N 
ATOM     31  H   UNL     1      -8.243   2.783  -3.573  0.00  0.00    +0.142 HD
ATOM     32  H   UNL     1      -8.615   1.041  -3.237  0.00  0.00    +0.142 HD
ENDBRANCH  26  30
BRANCH  27  33
ATOM     33  C   UNL     1      -9.956   3.617  -1.446  0.00  0.00    +0.157 C 
BRANCH  33  34
ATOM     34  C   UNL     1     -11.024   2.555  -1.524  0.00  0.00    +0.309 C 
ATOM     35  O   UNL     1     -10.783   1.395  -1.100  0.00  0.00    -0.251 OA
BRANCH  34  36
ATOM     36  O   UNL     1     -12.254   2.839  -2.052  0.00  0.00    -0.480 OA
ATOM     37  H   UNL     1     -13.065   2.412  -1.614  0.00  0.00    +0.295 HD
ENDBRANCH  34  36
ENDBRANCH  33  34
ENDBRANCH  27  33
ENDBRANCH  23  24
BRANCH  23  38
ATOM     38  N   UNL     1      -5.425   1.012   2.161  0.00  0.00    -0.321 NA
ATOM     39  H   UNL     1      -5.037   1.620   2.911  0.00  0.00    +0.119 HD
ATOM     40  H   UNL     1      -6.453   0.917   2.294  0.00  0.00    +0.119 HD
ENDBRANCH  23  38
ENDBRANCH  22  23
ENDBRANCH  21  22
ENDBRANCH  19  21
ENDBRANCH  18  19
ENDBRANCH  16  18
ENDBRANCH   1  16
BRANCH   1  41
ATOM     41  C   UNL     1       1.467  -0.718   0.287  0.00  0.00    +0.023 C 
BRANCH  41  42
ATOM     42  C   UNL     1       2.880  -1.200   0.315  0.00  0.00    +0.002 C 
BRANCH  42  43
ATOM     43  C   UNL     1       3.599  -0.915   1.587  0.00  0.00    +0.003 C 
BRANCH  43  44
ATOM     44  C   UNL     1       3.710   0.502   1.994  0.00  0.00    +0.041 C 
BRANCH  44  45
ATOM     45  C   UNL     1       4.468   1.402   1.072  0.00  0.00    +0.232 C 
BRANCH  45  46
ATOM     46  O   UNL     1       5.821   0.979   0.924  0.00  0.00    -0.464 OA
BRANCH  46  47
ATOM     47  C   UNL     1       6.763   1.676   0.189  0.00  0.00    +0.311 C 
ATOM     48  O   UNL     1       6.422   2.739  -0.383  0.00  0.00    -0.250 OA
BRANCH  47  49
ATOM     49  C   UNL     1       8.163   1.214   0.060  0.00  0.00    +0.155 C 
BRANCH  49  53
ATOM     50  C   UNL     1      10.512   4.234  -1.828  0.00  0.00    +0.023 A 
ATOM     51  C   UNL     1       9.884   3.279  -2.615  0.00  0.00    +0.025 A 
ATOM     52  C   UNL     1       9.107   2.276  -2.035  0.00  0.00    +0.027 A 
ATOM     53  C   UNL     1       8.957   2.229  -0.670  0.00  0.00    -0.035 A 
ATOM     54  C   UNL     1       9.602   3.206   0.096  0.00  0.00    +0.004 A 
ATOM     55  C   UNL     1      10.372   4.202  -0.461  0.00  0.00    +0.002 A 
BRANCH  51  56
ATOM     56  N   UNL     1      10.009   3.284  -4.016  0.00  0.00    -0.358 N 
ATOM     57  H   UNL     1       9.317   3.815  -4.581  0.00  0.00    +0.142 HD
ATOM     58  H   UNL     1      10.798   2.752  -4.458  0.00  0.00    +0.142 HD
ENDBRANCH  51  56
ENDBRANCH  49  53
ENDBRANCH  47  49
ENDBRANCH  46  47
ENDBRANCH  45  46
ENDBRANCH  44  45
ENDBRANCH  43  44
ENDBRANCH  42  43
ENDBRANCH  41  42
ENDBRANCH   1  41
TORSDOF 27
