MODEL 1
REMARK VINA RESULT:      -7.5      0.000      0.000
REMARK  Name = CEL
REMARK  6 active torsions:
REMARK  status: ('A' for Active; 'I' for Inactive)
REMARK    1  A    between atoms: S_1  and  C_2
REMARK    2  A    between atoms: S_1  and  N_24
REMARK    3  A    between atoms: C_5  and  N_8
REMARK    4  A    between atoms: C_9  and  C_10
REMARK    5  A    between atoms: C_13  and  C_14
REMARK    6  A    between atoms: C_18  and  C_19
REMARK                            x       y       z     vdW  Elec       q    Type
REMARK                         _______ _______ _______ _____ _____    ______ ____
ROOT
ATOM     11  N   UNL     1      10.583   0.214 -10.791  0.00  0.00    -0.232 N 
ATOM     12  N   UNL     1      11.225  -0.535  -9.796  0.00  0.00    -0.162 NA
ATOM     13  C   UNL     1      12.221   0.171  -9.322  0.00  0.00    +0.166 A 
ATOM     18  C   UNL     1      12.260   1.393  -9.991  0.00  0.00    +0.062 A 
ATOM     19  C   UNL     1      11.241   1.405 -10.901  0.00  0.00    +0.075 A 
ENDROOT
BRANCH  19  20
ATOM     20  C   UNL     1      10.908   2.507 -11.831  0.00  0.00    +0.000 A 
ATOM     21  C   UNL     1       9.758   3.271 -11.630  0.00  0.00    +0.010 A 
ATOM     22  C   UNL     1       9.457   4.299 -12.498  0.00  0.00    +0.004 A 
ATOM     23  C   UNL     1      10.286   4.570 -13.570  0.00  0.00    -0.050 A 
ATOM     24  C   UNL     1       9.947   5.692 -14.517  0.00  0.00    +0.044 C 
ATOM     25  C   UNL     1      11.429   3.816 -13.775  0.00  0.00    +0.004 A 
ATOM     26  C   UNL     1      11.744   2.788 -12.911  0.00  0.00    +0.010 A 
ENDBRANCH  19  20
BRANCH  11  10
ATOM      7  C   UNL     1       7.275  -0.987 -13.022  0.00  0.00    +0.105 A 
ATOM      8  C   UNL     1       7.188  -0.914 -11.644  0.00  0.00    +0.030 A 
ATOM      9  C   UNL     1       8.286  -0.522 -10.902  0.00  0.00    +0.030 A 
ATOM     10  C   UNL     1       9.472  -0.189 -11.540  0.00  0.00    +0.066 A 
ATOM     27  C   UNL     1       9.555  -0.265 -12.924  0.00  0.00    +0.030 A 
ATOM     28  C   UNL     1       8.458  -0.664 -13.660  0.00  0.00    +0.030 A 
BRANCH   7   1
ATOM      1  S   UNL     1       5.876  -1.496 -13.965  0.00  0.00    +0.056 S 
ATOM      2  O   UNL     1       5.337  -0.307 -14.525  0.00  0.00    -0.153 OA
ATOM      3  O   UNL     1       5.168  -2.411 -13.142  0.00  0.00    -0.153 OA
BRANCH   1   4
ATOM      4  N   UNL     1       6.437  -2.383 -15.245  0.00  0.00    -0.204 NA
ATOM      5  H   UNL     1       5.818  -2.896 -15.788  0.00  0.00    +0.144 HD
ATOM      6  H   UNL     1       7.384  -2.388 -15.454  0.00  0.00    +0.144 HD
ENDBRANCH   1   4
ENDBRANCH   7   1
ENDBRANCH  11  10
BRANCH  13  14
ATOM     14  C   UNL     1      13.167  -0.265  -8.232  0.00  0.00    +0.436 C 
ATOM     15  F   UNL     1      12.935  -1.609  -7.923  0.00  0.00    -0.164 F 
ATOM     16  F   UNL     1      12.956   0.518  -7.093  0.00  0.00    -0.164 F 
ATOM     17  F   UNL     1      14.487  -0.106  -8.669  0.00  0.00    -0.164 F 
ENDBRANCH  13  14
TORSDOF 5
ENDMDL
MODEL 2
REMARK VINA RESULT:      -7.4      2.817      5.028
REMARK  Name = CEL
REMARK  6 active torsions:
REMARK  status: ('A' for Active; 'I' for Inactive)
REMARK    1  A    between atoms: S_1  and  C_2
REMARK    2  A    between atoms: S_1  and  N_24
REMARK    3  A    between atoms: C_5  and  N_8
REMARK    4  A    between atoms: C_9  and  C_10
REMARK    5  A    between atoms: C_13  and  C_14
REMARK    6  A    between atoms: C_18  and  C_19
REMARK                            x       y       z     vdW  Elec       q    Type
REMARK                         _______ _______ _______ _____ _____    ______ ____
ROOT
ATOM     11  N   UNL     1      10.879   0.699 -10.870  0.00  0.00    -0.232 N 
ATOM     12  N   UNL     1      12.108   0.900 -10.229  0.00  0.00    -0.162 NA
ATOM     13  C   UNL     1      12.351  -0.133  -9.462  0.00  0.00    +0.166 A 
ATOM     18  C   UNL     1      11.292  -1.033  -9.577  0.00  0.00    +0.062 A 
ATOM     19  C   UNL     1      10.385  -0.501 -10.450  0.00  0.00    +0.075 A 
ENDROOT
BRANCH  19  20
ATOM     20  C   UNL     1       9.106  -1.118 -10.869  0.00  0.00    +0.000 A 
ATOM     21  C   UNL     1       9.107  -2.289 -11.627  0.00  0.00    +0.010 A 
ATOM     22  C   UNL     1       7.912  -2.860 -12.010  0.00  0.00    +0.004 A 
ATOM     23  C   UNL     1       6.713  -2.271 -11.651  0.00  0.00    -0.050 A 
ATOM     24  C   UNL     1       5.411  -2.898 -12.077  0.00  0.00    +0.044 C 
ATOM     25  C   UNL     1       6.706  -1.110 -10.898  0.00  0.00    +0.004 A 
ATOM     26  C   UNL     1       7.895  -0.531 -10.505  0.00  0.00    +0.010 A 
ENDBRANCH  19  20
BRANCH  11  10
ATOM      7  C   UNL     1       9.052   3.310 -13.555  0.00  0.00    +0.105 A 
ATOM      8  C   UNL     1       8.931   1.944 -13.731  0.00  0.00    +0.030 A 
ATOM      9  C   UNL     1       9.542   1.076 -12.846  0.00  0.00    +0.030 A 
ATOM     10  C   UNL     1      10.265   1.576 -11.772  0.00  0.00    +0.066 A 
ATOM     27  C   UNL     1      10.383   2.949 -11.599  0.00  0.00    +0.030 A 
ATOM     28  C   UNL     1       9.777   3.811 -12.491  0.00  0.00    +0.030 A 
BRANCH   7   1
ATOM      1  S   UNL     1       8.279   4.413 -14.692  0.00  0.00    +0.056 S 
ATOM      2  O   UNL     1       7.892   3.614 -15.801  0.00  0.00    -0.153 OA
ATOM      3  O   UNL     1       9.121   5.554 -14.755  0.00  0.00    -0.153 OA
BRANCH   1   4
ATOM      4  N   UNL     1       6.868   4.931 -13.998  0.00  0.00    -0.204 NA
ATOM      5  H   UNL     1       6.361   4.333 -13.425  0.00  0.00    +0.144 HD
ATOM      6  H   UNL     1       6.549   5.832 -14.162  0.00  0.00    +0.144 HD
ENDBRANCH   1   4
ENDBRANCH   7   1
ENDBRANCH  11  10
BRANCH  13  14
ATOM     14  C   UNL     1      13.574  -0.321  -8.601  0.00  0.00    +0.436 C 
ATOM     15  F   UNL     1      13.995  -1.652  -8.671  0.00  0.00    -0.164 F 
ATOM     16  F   UNL     1      13.263   0.001  -7.276  0.00  0.00    -0.164 F 
ATOM     17  F   UNL     1      14.597   0.518  -9.056  0.00  0.00    -0.164 F 
ENDBRANCH  13  14
TORSDOF 5
ENDMDL
MODEL 3
REMARK VINA RESULT:      -7.0      0.948      1.917
REMARK  Name = CEL
REMARK  6 active torsions:
REMARK  status: ('A' for Active; 'I' for Inactive)
REMARK    1  A    between atoms: S_1  and  C_2
REMARK    2  A    between atoms: S_1  and  N_24
REMARK    3  A    between atoms: C_5  and  N_8
REMARK    4  A    between atoms: C_9  and  C_10
REMARK    5  A    between atoms: C_13  and  C_14
REMARK    6  A    between atoms: C_18  and  C_19
REMARK                            x       y       z     vdW  Elec       q    Type
REMARK                         _______ _______ _______ _____ _____    ______ ____
ROOT
ATOM     11  N   UNL     1      10.084   0.251 -10.761  0.00  0.00    -0.232 N 
ATOM     12  N   UNL     1      10.519  -0.491  -9.655  0.00  0.00    -0.162 NA
ATOM     13  C   UNL     1      11.426   0.206  -9.017  0.00  0.00    +0.166 A 
ATOM     18  C   UNL     1      11.609   1.415  -9.685  0.00  0.00    +0.062 A 
ATOM     19  C   UNL     1      10.774   1.428 -10.766  0.00  0.00    +0.075 A 
ENDROOT
BRANCH  19  20
ATOM     20  C   UNL     1      10.638   2.519 -11.756  0.00  0.00    +0.000 A 
ATOM     21  C   UNL     1      11.619   2.710 -12.729  0.00  0.00    +0.010 A 
ATOM     22  C   UNL     1      11.483   3.727 -13.651  0.00  0.00    +0.004 A 
ATOM     23  C   UNL     1      10.382   4.561 -13.608  0.00  0.00    -0.050 A 
ATOM     24  C   UNL     1      10.242   5.673 -14.616  0.00  0.00    +0.044 C 
ATOM     25  C   UNL     1       9.404   4.376 -12.647  0.00  0.00    +0.004 A 
ATOM     26  C   UNL     1       9.526   3.360 -11.722  0.00  0.00    +0.010 A 
ENDBRANCH  19  20
BRANCH  11  10
ATOM      7  C   UNL     1       7.216  -0.934 -13.543  0.00  0.00    +0.105 A 
ATOM      8  C   UNL     1       8.473  -0.546 -13.969  0.00  0.00    +0.030 A 
ATOM      9  C   UNL     1       9.423  -0.146 -13.050  0.00  0.00    +0.030 A 
ATOM     10  C   UNL     1       9.121  -0.147 -11.696  0.00  0.00    +0.066 A 
ATOM     27  C   UNL     1       7.858  -0.537 -11.271  0.00  0.00    +0.030 A 
ATOM     28  C   UNL     1       6.909  -0.928 -12.195  0.00  0.00    +0.030 A 
BRANCH   7   1
ATOM      1  S   UNL     1       6.004  -1.434 -14.719  0.00  0.00    +0.056 S 
ATOM      2  O   UNL     1       5.098  -2.266 -14.009  0.00  0.00    -0.153 OA
ATOM      3  O   UNL     1       6.727  -1.811 -15.882  0.00  0.00    -0.153 OA
BRANCH   1   4
ATOM      4  N   UNL     1       5.140  -0.087 -15.144  0.00  0.00    -0.204 NA
ATOM      5  H   UNL     1       4.429   0.235 -14.567  0.00  0.00    +0.144 HD
ATOM      6  H   UNL     1       5.344   0.381 -15.968  0.00  0.00    +0.144 HD
ENDBRANCH   1   4
ENDBRANCH   7   1
ENDBRANCH  11  10
BRANCH  13  14
ATOM     14  C   UNL     1      12.147  -0.227  -7.766  0.00  0.00    +0.436 C 
ATOM     15  F   UNL     1      13.448   0.288  -7.776  0.00  0.00    -0.164 F 
ATOM     16  F   UNL     1      12.199  -1.623  -7.718  0.00  0.00    -0.164 F 
ATOM     17  F   UNL     1      11.464   0.254  -6.644  0.00  0.00    -0.164 F 
ENDBRANCH  13  14
TORSDOF 5
ENDMDL
MODEL 4
REMARK VINA RESULT:      -6.9      1.267      1.665
REMARK  Name = CEL
REMARK  6 active torsions:
REMARK  status: ('A' for Active; 'I' for Inactive)
REMARK    1  A    between atoms: S_1  and  C_2
REMARK    2  A    between atoms: S_1  and  N_24
REMARK    3  A    between atoms: C_5  and  N_8
REMARK    4  A    between atoms: C_9  and  C_10
REMARK    5  A    between atoms: C_13  and  C_14
REMARK    6  A    between atoms: C_18  and  C_19
REMARK                            x       y       z     vdW  Elec       q    Type
REMARK                         _______ _______ _______ _____ _____    ______ ____
ROOT
ATOM     11  N   UNL     1      10.263  -0.142 -10.836  0.00  0.00    -0.232 N 
ATOM     12  N   UNL     1      11.162  -0.693  -9.914  0.00  0.00    -0.162 NA
ATOM     13  C   UNL     1      12.113   0.177  -9.688  0.00  0.00    +0.166 A 
ATOM     18  C   UNL     1      11.867   1.315 -10.454  0.00  0.00    +0.062 A 
ATOM     19  C   UNL     1      10.719   1.102 -11.164  0.00  0.00    +0.075 A 
ENDROOT
BRANCH  19  20
ATOM     20  C   UNL     1      10.084   2.047 -12.109  0.00  0.00    +0.000 A 
ATOM     21  C   UNL     1       9.329   1.568 -13.179  0.00  0.00    +0.010 A 
ATOM     22  C   UNL     1       8.736   2.456 -14.053  0.00  0.00    +0.004 A 
ATOM     23  C   UNL     1       8.895   3.818 -13.875  0.00  0.00    -0.050 A 
ATOM     24  C   UNL     1       8.248   4.781 -14.836  0.00  0.00    +0.044 C 
ATOM     25  C   UNL     1       9.641   4.299 -12.814  0.00  0.00    +0.004 A 
ATOM     26  C   UNL     1      10.236   3.422 -11.931  0.00  0.00    +0.010 A 
ENDBRANCH  19  20
BRANCH  11  10
ATOM      7  C   UNL     1       6.832  -1.978 -12.326  0.00  0.00    +0.105 A 
ATOM      8  C   UNL     1       6.760  -1.204 -11.182  0.00  0.00    +0.030 A 
ATOM      9  C   UNL     1       7.897  -0.600 -10.683  0.00  0.00    +0.030 A 
ATOM     10  C   UNL     1       9.110  -0.759 -11.337  0.00  0.00    +0.066 A 
ATOM     27  C   UNL     1       9.180  -1.537 -12.485  0.00  0.00    +0.030 A 
ATOM     28  C   UNL     1       8.041  -2.144 -12.975  0.00  0.00    +0.030 A 
BRANCH   7   1
ATOM      1  S   UNL     1       5.381  -2.754 -12.955  0.00  0.00    +0.056 S 
ATOM      2  O   UNL     1       4.962  -1.956 -14.052  0.00  0.00    -0.153 OA
ATOM      3  O   UNL     1       4.589  -3.070 -11.819  0.00  0.00    -0.153 OA
BRANCH   1   4
ATOM      4  N   UNL     1       5.838  -4.207 -13.604  0.00  0.00    -0.204 NA
ATOM      5  H   UNL     1       5.175  -4.785 -14.015  0.00  0.00    +0.144 HD
ATOM      6  H   UNL     1       6.768  -4.481 -13.575  0.00  0.00    +0.144 HD
ENDBRANCH   1   4
ENDBRANCH   7   1
ENDBRANCH  11  10
BRANCH  13  14
ATOM     14  C   UNL     1      13.279  -0.017  -8.753  0.00  0.00    +0.436 C 
ATOM     15  F   UNL     1      14.297   0.885  -9.081  0.00  0.00    -0.164 F 
ATOM     16  F   UNL     1      13.759  -1.325  -8.873  0.00  0.00    -0.164 F 
ATOM     17  F   UNL     1      12.863   0.207  -7.436  0.00  0.00    -0.164 F 
ENDBRANCH  13  14
TORSDOF 5
ENDMDL
MODEL 5
REMARK VINA RESULT:      -6.6      4.953      6.518
REMARK  Name = CEL
REMARK  6 active torsions:
REMARK  status: ('A' for Active; 'I' for Inactive)
REMARK    1  A    between atoms: S_1  and  C_2
REMARK    2  A    between atoms: S_1  and  N_24
REMARK    3  A    between atoms: C_5  and  N_8
REMARK    4  A    between atoms: C_9  and  C_10
REMARK    5  A    between atoms: C_13  and  C_14
REMARK    6  A    between atoms: C_18  and  C_19
REMARK                            x       y       z     vdW  Elec       q    Type
REMARK                         _______ _______ _______ _____ _____    ______ ____
ROOT
ATOM     11  N   UNL     1       8.797  -0.927 -13.656  0.00  0.00    -0.232 N 
ATOM     12  N   UNL     1       9.102  -2.191 -14.177  0.00  0.00    -0.162 NA
ATOM     13  C   UNL     1       8.499  -2.323 -15.332  0.00  0.00    +0.166 A 
ATOM     18  C   UNL     1       7.783  -1.156 -15.596  0.00  0.00    +0.062 A 
ATOM     19  C   UNL     1       7.974  -0.301 -14.547  0.00  0.00    +0.075 A 
ENDROOT
BRANCH  19  20
ATOM     20  C   UNL     1       7.401   1.056 -14.406  0.00  0.00    +0.000 A 
ATOM     21  C   UNL     1       8.195   2.180 -14.631  0.00  0.00    +0.010 A 
ATOM     22  C   UNL     1       7.652   3.441 -14.502  0.00  0.00    +0.004 A 
ATOM     23  C   UNL     1       6.326   3.594 -14.143  0.00  0.00    -0.050 A 
ATOM     24  C   UNL     1       5.741   4.975 -14.000  0.00  0.00    +0.044 C 
ATOM     25  C   UNL     1       5.532   2.483 -13.919  0.00  0.00    +0.004 A 
ATOM     26  C   UNL     1       6.062   1.216 -14.050  0.00  0.00    +0.010 A 
ENDBRANCH  19  20
BRANCH  11  10
ATOM      7  C   UNL     1      10.141   0.630 -10.032  0.00  0.00    +0.105 A 
ATOM      8  C   UNL     1       9.085  -0.262 -10.051  0.00  0.00    +0.030 A 
ATOM      9  C   UNL     1       8.633  -0.774 -11.252  0.00  0.00    +0.030 A 
ATOM     10  C   UNL     1       9.249  -0.404 -12.439  0.00  0.00    +0.066 A 
ATOM     27  C   UNL     1      10.309   0.492 -12.416  0.00  0.00    +0.030 A 
ATOM     28  C   UNL     1      10.752   1.007 -11.214  0.00  0.00    +0.030 A 
BRANCH   7   1
ATOM      1  S   UNL     1      10.709   1.288  -8.500  0.00  0.00    +0.056 S 
ATOM      2  O   UNL     1       9.582   1.921  -7.912  0.00  0.00    -0.153 OA
ATOM      3  O   UNL     1      11.949   1.918  -8.785  0.00  0.00    -0.153 OA
BRANCH   1   4
ATOM      4  N   UNL     1      11.070   0.008  -7.514  0.00  0.00    -0.204 NA
ATOM      5  H   UNL     1      11.793   0.080  -6.871  0.00  0.00    +0.144 HD
ATOM      6  H   UNL     1      10.558  -0.814  -7.578  0.00  0.00    +0.144 HD
ENDBRANCH   1   4
ENDBRANCH   7   1
ENDBRANCH  11  10
BRANCH  13  14
ATOM     14  C   UNL     1       8.568  -3.533 -16.227  0.00  0.00    +0.436 C 
ATOM     15  F   UNL     1       7.538  -4.419 -15.895  0.00  0.00    -0.164 F 
ATOM     16  F   UNL     1       9.802  -4.168 -16.056  0.00  0.00    -0.164 F 
ATOM     17  F   UNL     1       8.430  -3.135 -17.561  0.00  0.00    -0.164 F 
ENDBRANCH  13  14
TORSDOF 5
ENDMDL
MODEL 6
REMARK VINA RESULT:      -6.6      4.950      6.522
REMARK  Name = CEL
REMARK  6 active torsions:
REMARK  status: ('A' for Active; 'I' for Inactive)
REMARK    1  A    between atoms: S_1  and  C_2
REMARK    2  A    between atoms: S_1  and  N_24
REMARK    3  A    between atoms: C_5  and  N_8
REMARK    4  A    between atoms: C_9  and  C_10
REMARK    5  A    between atoms: C_13  and  C_14
REMARK    6  A    between atoms: C_18  and  C_19
REMARK                            x       y       z     vdW  Elec       q    Type
REMARK                         _______ _______ _______ _____ _____    ______ ____
ROOT
ATOM     11  N   UNL     1       8.804  -0.971 -13.647  0.00  0.00    -0.232 N 
ATOM     12  N   UNL     1       9.104  -2.239 -14.161  0.00  0.00    -0.162 NA
ATOM     13  C   UNL     1       8.498  -2.375 -15.314  0.00  0.00    +0.166 A 
ATOM     18  C   UNL     1       7.786  -1.207 -15.583  0.00  0.00    +0.062 A 
ATOM     19  C   UNL     1       7.982  -0.347 -14.540  0.00  0.00    +0.075 A 
ENDROOT
BRANCH  19  20
ATOM     20  C   UNL     1       7.414   1.013 -14.406  0.00  0.00    +0.000 A 
ATOM     21  C   UNL     1       6.082   1.182 -14.029  0.00  0.00    +0.010 A 
ATOM     22  C   UNL     1       5.560   2.453 -13.902  0.00  0.00    +0.004 A 
ATOM     23  C   UNL     1       6.352   3.558 -14.154  0.00  0.00    -0.050 A 
ATOM     24  C   UNL     1       5.774   4.942 -14.018  0.00  0.00    +0.044 C 
ATOM     25  C   UNL     1       7.675   3.397 -14.527  0.00  0.00    +0.004 A 
ATOM     26  C   UNL     1       8.210   2.131 -14.653  0.00  0.00    +0.010 A 
ENDBRANCH  19  20
BRANCH  11  10
ATOM      7  C   UNL     1      10.161   0.601 -10.035  0.00  0.00    +0.105 A 
ATOM      8  C   UNL     1      10.785   0.952 -11.218  0.00  0.00    +0.030 A 
ATOM      9  C   UNL     1      10.342   0.427 -12.416  0.00  0.00    +0.030 A 
ATOM     10  C   UNL     1       9.260  -0.442 -12.434  0.00  0.00    +0.066 A 
ATOM     27  C   UNL     1       8.636  -0.793 -11.244  0.00  0.00    +0.030 A 
ATOM     28  C   UNL     1       9.089  -0.270 -10.048  0.00  0.00    +0.030 A 
BRANCH   7   1
ATOM      1  S   UNL     1      10.736   1.266  -8.508  0.00  0.00    +0.056 S 
ATOM      2  O   UNL     1       9.621   1.934  -7.935  0.00  0.00    -0.153 OA
ATOM      3  O   UNL     1      11.992   1.862  -8.795  0.00  0.00    -0.153 OA
BRANCH   1   4
ATOM      4  N   UNL     1      11.061  -0.009  -7.503  0.00  0.00    -0.204 NA
ATOM      5  H   UNL     1      11.870  -0.531  -7.627  0.00  0.00    +0.144 HD
ATOM      6  H   UNL     1      10.444  -0.234  -6.789  0.00  0.00    +0.144 HD
ENDBRANCH   1   4
ENDBRANCH   7   1
ENDBRANCH  11  10
BRANCH  13  14
ATOM     14  C   UNL     1       8.561  -3.591 -16.203  0.00  0.00    +0.436 C 
ATOM     15  F   UNL     1       7.475  -4.428 -15.926  0.00  0.00    -0.164 F 
ATOM     16  F   UNL     1       9.754  -4.280 -15.964  0.00  0.00    -0.164 F 
ATOM     17  F   UNL     1       8.513  -3.191 -17.543  0.00  0.00    -0.164 F 
ENDBRANCH  13  14
TORSDOF 5
ENDMDL
MODEL 7
REMARK VINA RESULT:      -6.6      4.472      6.159
REMARK  Name = CEL
REMARK  6 active torsions:
REMARK  status: ('A' for Active; 'I' for Inactive)
REMARK    1  A    between atoms: S_1  and  C_2
REMARK    2  A    between atoms: S_1  and  N_24
REMARK    3  A    between atoms: C_5  and  N_8
REMARK    4  A    between atoms: C_9  and  C_10
REMARK    5  A    between atoms: C_13  and  C_14
REMARK    6  A    between atoms: C_18  and  C_19
REMARK                            x       y       z     vdW  Elec       q    Type
REMARK                         _______ _______ _______ _____ _____    ______ ____
ROOT
ATOM     11  N   UNL     1       8.141  -0.558 -14.101  0.00  0.00    -0.232 N 
ATOM     12  N   UNL     1       7.937  -1.603 -15.011  0.00  0.00    -0.162 NA
ATOM     13  C   UNL     1       8.590  -2.657 -14.589  0.00  0.00    +0.166 A 
ATOM     18  C   UNL     1       9.238  -2.331 -13.398  0.00  0.00    +0.062 A 
ATOM     19  C   UNL     1       8.953  -1.026 -13.110  0.00  0.00    +0.075 A 
ENDROOT
BRANCH  19  20
ATOM     20  C   UNL     1       9.433  -0.263 -11.936  0.00  0.00    +0.000 A 
ATOM     21  C   UNL     1       8.821  -0.429 -10.694  0.00  0.00    +0.010 A 
ATOM     22  C   UNL     1       9.275   0.282  -9.603  0.00  0.00    +0.004 A 
ATOM     23  C   UNL     1      10.331   1.165  -9.740  0.00  0.00    -0.050 A 
ATOM     24  C   UNL     1      10.819   1.942  -8.545  0.00  0.00    +0.044 C 
ATOM     25  C   UNL     1      10.943   1.333 -10.969  0.00  0.00    +0.004 A 
ATOM     26  C   UNL     1      10.501   0.624 -12.066  0.00  0.00    +0.010 A 
ENDBRANCH  19  20
BRANCH  11  10
ATOM      7  C   UNL     1       6.566   3.290 -14.382  0.00  0.00    +0.105 A 
ATOM      8  C   UNL     1       7.914   3.078 -14.605  0.00  0.00    +0.030 A 
ATOM      9  C   UNL     1       8.440   1.804 -14.505  0.00  0.00    +0.030 A 
ATOM     10  C   UNL     1       7.612   0.735 -14.195  0.00  0.00    +0.066 A 
ATOM     27  C   UNL     1       6.259   0.951 -13.971  0.00  0.00    +0.030 A 
ATOM     28  C   UNL     1       5.740   2.228 -14.065  0.00  0.00    +0.030 A 
BRANCH   7   1
ATOM      1  S   UNL     1       5.901   4.917 -14.500  0.00  0.00    +0.056 S 
ATOM      2  O   UNL     1       6.922   5.708 -15.091  0.00  0.00    -0.153 OA
ATOM      3  O   UNL     1       5.284   5.174 -13.248  0.00  0.00    -0.153 OA
BRANCH   1   4
ATOM      4  N   UNL     1       4.671   4.871 -15.608  0.00  0.00    -0.204 NA
ATOM      5  H   UNL     1       4.568   5.591 -16.249  0.00  0.00    +0.144 HD
ATOM      6  H   UNL     1       4.055   4.122 -15.617  0.00  0.00    +0.144 HD
ENDBRANCH   1   4
ENDBRANCH   7   1
ENDBRANCH  11  10
BRANCH  13  14
ATOM     14  C   UNL     1       8.632  -3.998 -15.274  0.00  0.00    +0.436 C 
ATOM     15  F   UNL     1       7.838  -4.908 -14.568  0.00  0.00    -0.164 F 
ATOM     16  F   UNL     1       9.951  -4.461 -15.311  0.00  0.00    -0.164 F 
ATOM     17  F   UNL     1       8.146  -3.870 -16.580  0.00  0.00    -0.164 F 
ENDBRANCH  13  14
TORSDOF 5
ENDMDL
MODEL 8
REMARK VINA RESULT:      -6.5      5.176      7.346
REMARK  Name = CEL
REMARK  6 active torsions:
REMARK  status: ('A' for Active; 'I' for Inactive)
REMARK    1  A    between atoms: S_1  and  C_2
REMARK    2  A    between atoms: S_1  and  N_24
REMARK    3  A    between atoms: C_5  and  N_8
REMARK    4  A    between atoms: C_9  and  C_10
REMARK    5  A    between atoms: C_13  and  C_14
REMARK    6  A    between atoms: C_18  and  C_19
REMARK                            x       y       z     vdW  Elec       q    Type
REMARK                         _______ _______ _______ _____ _____    ______ ____
ROOT
ATOM     11  N   UNL     1       9.267   1.729 -12.806  0.00  0.00    -0.232 N 
ATOM     12  N   UNL     1       9.175   3.049 -13.265  0.00  0.00    -0.162 NA
ATOM     13  C   UNL     1       8.256   3.103 -14.197  0.00  0.00    +0.166 A 
ATOM     18  C   UNL     1       7.727   1.826 -14.375  0.00  0.00    +0.062 A 
ATOM     19  C   UNL     1       8.365   0.983 -13.509  0.00  0.00    +0.075 A 
ENDROOT
BRANCH  19  20
ATOM     20  C   UNL     1       8.120  -0.468 -13.356  0.00  0.00    +0.000 A 
ATOM     21  C   UNL     1       7.092  -0.922 -12.530  0.00  0.00    +0.010 A 
ATOM     22  C   UNL     1       6.866  -2.276 -12.396  0.00  0.00    +0.004 A 
ATOM     23  C   UNL     1       7.661  -3.183 -13.071  0.00  0.00    -0.050 A 
ATOM     24  C   UNL     1       7.411  -4.661 -12.916  0.00  0.00    +0.044 C 
ATOM     25  C   UNL     1       8.681  -2.739 -13.894  0.00  0.00    +0.004 A 
ATOM     26  C   UNL     1       8.914  -1.388 -14.040  0.00  0.00    +0.010 A 
ENDBRANCH  19  20
BRANCH  11  10
ATOM      7  C   UNL     1      11.844   0.329  -9.846  0.00  0.00    +0.105 A 
ATOM      8  C   UNL     1      10.701  -0.383 -10.159  0.00  0.00    +0.030 A 
ATOM      9  C   UNL     1       9.841   0.083 -11.135  0.00  0.00    +0.030 A 
ATOM     10  C   UNL     1      10.133   1.258 -11.812  0.00  0.00    +0.066 A 
ATOM     27  C   UNL     1      11.282   1.971 -11.495  0.00  0.00    +0.030 A 
ATOM     28  C   UNL     1      12.133   1.504 -10.513  0.00  0.00    +0.030 A 
BRANCH   7   1
ATOM      1  S   UNL     1      12.933  -0.264  -8.594  0.00  0.00    +0.056 S 
ATOM      2  O   UNL     1      13.239   0.863  -7.786  0.00  0.00    -0.153 OA
ATOM      3  O   UNL     1      13.884  -1.078  -9.264  0.00  0.00    -0.153 OA
BRANCH   1   4
ATOM      4  N   UNL     1      12.065  -1.289  -7.626  0.00  0.00    -0.204 NA
ATOM      5  H   UNL     1      11.976  -2.224  -7.867  0.00  0.00    +0.144 HD
ATOM      6  H   UNL     1      11.645  -0.954  -6.818  0.00  0.00    +0.144 HD
ENDBRANCH   1   4
ENDBRANCH   7   1
ENDBRANCH  11  10
BRANCH  13  14
ATOM     14  C   UNL     1       7.839   4.341 -14.950  0.00  0.00    +0.436 C 
ATOM     15  F   UNL     1       7.321   3.976 -16.197  0.00  0.00    -0.164 F 
ATOM     16  F   UNL     1       8.949   5.171 -15.131  0.00  0.00    -0.164 F 
ATOM     17  F   UNL     1       6.861   5.023 -14.219  0.00  0.00    -0.164 F 
ENDBRANCH  13  14
TORSDOF 5
ENDMDL
MODEL 9
REMARK VINA RESULT:      -6.5      5.252      7.558
REMARK  Name = CEL
REMARK  6 active torsions:
REMARK  status: ('A' for Active; 'I' for Inactive)
REMARK    1  A    between atoms: S_1  and  C_2
REMARK    2  A    between atoms: S_1  and  N_24
REMARK    3  A    between atoms: C_5  and  N_8
REMARK    4  A    between atoms: C_9  and  C_10
REMARK    5  A    between atoms: C_13  and  C_14
REMARK    6  A    between atoms: C_18  and  C_19
REMARK                            x       y       z     vdW  Elec       q    Type
REMARK                         _______ _______ _______ _____ _____    ______ ____
ROOT
ATOM     11  N   UNL     1       8.713   0.855 -13.070  0.00  0.00    -0.232 N 
ATOM     12  N   UNL     1       8.510   2.121 -13.634  0.00  0.00    -0.162 NA
ATOM     13  C   UNL     1       7.817   1.979 -14.737  0.00  0.00    +0.166 A 
ATOM     18  C   UNL     1       7.552   0.623 -14.924  0.00  0.00    +0.062 A 
ATOM     19  C   UNL     1       8.116  -0.062 -13.886  0.00  0.00    +0.075 A 
ENDROOT
BRANCH  19  20
ATOM     20  C   UNL     1       8.081  -1.527 -13.680  0.00  0.00    +0.000 A 
ATOM     21  C   UNL     1       9.127  -2.325 -14.141  0.00  0.00    +0.010 A 
ATOM     22  C   UNL     1       9.089  -3.690 -13.941  0.00  0.00    +0.004 A 
ATOM     23  C   UNL     1       8.014  -4.268 -13.293  0.00  0.00    -0.050 A 
ATOM     24  C   UNL     1       7.977  -5.760 -13.082  0.00  0.00    +0.044 C 
ATOM     25  C   UNL     1       6.973  -3.481 -12.831  0.00  0.00    +0.004 A 
ATOM     26  C   UNL     1       7.001  -2.115 -13.021  0.00  0.00    +0.010 A 
ENDBRANCH  19  20
BRANCH  11  10
ATOM      7  C   UNL     1      10.785   0.037  -9.548  0.00  0.00    +0.105 A 
ATOM      8  C   UNL     1       9.440  -0.270  -9.645  0.00  0.00    +0.030 A 
ATOM      9  C   UNL     1       8.749   0.007 -10.809  0.00  0.00    +0.030 A 
ATOM     10  C   UNL     1       9.409   0.580 -11.887  0.00  0.00    +0.066 A 
ATOM     27  C   UNL     1      10.759   0.886 -11.786  0.00  0.00    +0.030 A 
ATOM     28  C   UNL     1      11.443   0.615 -10.617  0.00  0.00    +0.030 A 
BRANCH   7   1
ATOM      1  S   UNL     1      11.660  -0.309  -8.058  0.00  0.00    +0.056 S 
ATOM      2  O   UNL     1      11.062   0.508  -7.062  0.00  0.00    -0.153 OA
ATOM      3  O   UNL     1      13.035  -0.304  -8.409  0.00  0.00    -0.153 OA
BRANCH   1   4
ATOM      4  N   UNL     1      11.310  -1.870  -7.629  0.00  0.00    -0.204 NA
ATOM      5  H   UNL     1      10.848  -2.052  -6.796  0.00  0.00    +0.144 HD
ATOM      6  H   UNL     1      11.566  -2.602  -8.212  0.00  0.00    +0.144 HD
ENDBRANCH   1   4
ENDBRANCH   7   1
ENDBRANCH  11  10
BRANCH  13  14
ATOM     14  C   UNL     1       7.378   3.095 -15.649  0.00  0.00    +0.436 C 
ATOM     15  F   UNL     1       7.414   2.656 -16.976  0.00  0.00    -0.164 F 
ATOM     16  F   UNL     1       8.238   4.187 -15.496  0.00  0.00    -0.164 F 
ATOM     17  F   UNL     1       6.074   3.481 -15.319  0.00  0.00    -0.164 F 
ENDBRANCH  13  14
TORSDOF 5
ENDMDL
